Program Version,EnergyPlus, Version 22.2.0-c249759bad, YMD=2022.11.14 12:18,
   ** Warning ** Output:PreprocessorMessage="GroundTempCalc - Slab" has the following Warning condition:
   **   ~~~   ** Slab thickness [0.100 m] reset to 0.122 m  for computational stability.
   ************* Successfully added path "C:\\Users\\anaij\\OneDrive\\Desktop\\Dallas_EnergyModel\\Dallas_Feb2021_NoOutage_TMY3" to the sys.path in Python
   ************* Beginning Zone Sizing Calculations
   ** Warning ** CalculateZoneVolume: 1 zone is not fully enclosed. For more details use:  Output:Diagnostics,DisplayExtrawarnings; 
   ** Warning ** CheckUsedConstructions: There are 13 nominally unused constructions in input.
   **   ~~~   ** For explicit details on each unused construction, use Output:Diagnostics,DisplayExtraWarnings;
   ** Warning ** AirflowNetwork::Solver::get_input: AirflowNetwork:SimulationControl object, 
   **   ~~~   ** ..Specified AirflowNetwork Control = "MultizoneWithDistribution" and ZoneVentilation:* objects are present.
   **   ~~~   ** ..ZoneVentilation objects will not be simulated.
   ************* Beginning System Sizing Calculations
   ** Warning ** Check input. Pump nominal power or motor efficiency is set to 0, for pump=MAINS PRESSURE_UNIT1
   ** Warning ** AirflowNetwork::Solver::validate_distribution: A ZoneHVAC:EnergyRecoveryVentilator is simulated along with an AirflowNetwork but is not included in the AirflowNetwork.
   ************* Testing Individual Branch Integrity
   ************* All Branches passed integrity testing
   ************* Testing Individual Supply Air Path Integrity
   ************* All Supply Air Paths passed integrity testing
   ************* Testing Individual Return Air Path Integrity
   ************* All Return Air Paths passed integrity testing
   ************* No node connection errors were found.
   ************* Beginning Simulation
   ** Warning ** CalcEquipmentFlowRates: "CLOTHES WASHER_UNIT1" - Target water temperature is greater than the hot water temperature by (1.87 C)
   **   ~~~   **  Environment=DALLAS FORT WORTH INTL AP ANN HTG 99.6% CONDNS DB, at Simulation time=01/21 00:00 - 00:10
   **   ~~~   ** ...target water temperature     = 48.89 C
   **   ~~~   ** ...hot water temperature        = 47.02 C
   **   ~~~   ** ...Target water temperature should be less than or equal to the hot water temperature. Verify temperature setpoints and schedules.
   ** Warning ** CalcEquipmentFlowRates: "DISHWASHER_UNIT1" - Target water temperature is greater than the hot water temperature by (1.87 C)
   **   ~~~   **  Environment=DALLAS FORT WORTH INTL AP ANN HTG 99.6% CONDNS DB, at Simulation time=01/21 00:00 - 00:10
   **   ~~~   ** ...target water temperature     = 48.89 C
   **   ~~~   ** ...hot water temperature        = 47.02 C
   **   ~~~   ** ...Target water temperature should be less than or equal to the hot water temperature. Verify temperature setpoints and schedules.
   ** Warning ** In Output:Table:Monthly 'COILLOADS' invalid Variable or Meter Name 'HEATING COIL AIR HEATING RATE'
   ** Warning ** In Output:Table:Monthly 'WATER HEATER: LOADS' invalid Variable or Meter Name 'WATER HEATER TOTAL DEMAND RATE'
   ** Warning ** In Output:Table:Monthly 'WATER HEATER: LOADS' invalid Variable or Meter Name 'WATER HEATER TOTAL DEMAND ENERGY'
   ** Warning ** In Output:Table:Monthly 'LIGHTING LOADS' invalid Variable or Meter Name 'ZONE LIGHTS ELECTRIC CONSUMPTION'
   ** Warning ** In Output:Table:Monthly 'LIGHTING LOADS' invalid Variable or Meter Name 'EXTERIOR LIGHTS ELECTRIC CONSUMPTION'
   ** Warning ** In Output:Table:Monthly 'INTERNALGAINS' invalid Variable or Meter Name 'ZONE PEOPLE TOTAL HEAT GAIN'
   ** Warning ** In Output:Table:Monthly 'INTERNALGAINS' invalid Variable or Meter Name 'ZONE LIGHTS TOTAL HEAT GAIN'
   ** Warning ** In Output:Table:Monthly 'INTERNALGAINS' invalid Variable or Meter Name 'ZONE ELECTRIC EQUIPMENT TOTAL HEAT GAIN'
   ** Warning ** In Output:Table:Monthly 'INTERNALGAINS' invalid Variable or Meter Name 'ZONE GAS EQUIPMENT TOTAL HEAT GAIN'
   ** Warning ** In Output:Table:Monthly 'INTERNALGAINS' invalid Variable or Meter Name 'ZONE OTHER EQUIPMENT TOTAL HEAT GAIN'
   ** Warning ** In Output:Table:Monthly 'INTERNALGAINS' invalid Variable or Meter Name 'ZONE TOTAL INTERNAL TOTAL HEAT GAIN'
   ** Warning ** SimHVAC: Maximum iterations (20) exceeded for all HVAC loops, at ANNUAL, 02/08 15:40 - 15:50
   **   ~~~   ** The solution for one or more of the Air Loop HVAC systems did not appear to converge
   **   ~~~   ** ...use Output:Diagnostics,DisplayExtraWarnings; to show more details on each max iteration exceeded.
   ** Warning ** SimHVAC: Maximum iterations (20) exceeded for all HVAC loops, at ANNUAL, 02/14 12:26 - 12:28
   **   ~~~   ** The solution for one or more of the Air Loop HVAC systems did not appear to converge
   ** Warning ** SimHVAC: Maximum iterations (20) exceeded for all HVAC loops, at ANNUAL, 02/20 09:30 - 09:40
   **   ~~~   ** The solution for one or more of the Air Loop HVAC systems did not appear to converge
   ** Warning ** SimHVAC: Maximum iterations (20) exceeded for all HVAC loops, at ANNUAL, 02/21 05:10 - 05:20
   **   ~~~   ** The solution for one or more of the Air Loop HVAC systems did not appear to converge
   ** Warning ** SimHVAC: Maximum iterations (20) exceeded for all HVAC loops, at ANNUAL, 02/21 09:20 - 09:30
   **   ~~~   ** The solution for one or more of the Air Loop HVAC systems did not appear to converge
   ** Warning ** SimHVAC: Maximum iterations (20) exceeded for all HVAC loops, at ANNUAL, 02/24 00:00 - 00:10
   **   ~~~   ** The solution for one or more of the Air Loop HVAC systems did not appear to converge
   ** Warning ** SimHVAC: Maximum iterations (20) exceeded for all HVAC loops, at ANNUAL, 02/28 03:20 - 03:30
   **   ~~~   ** The solution for one or more of the Air Loop HVAC systems did not appear to converge
   ************* Simulation Error Summary *************
   ************* There are 24 unused schedules in input.
   ************* There are 19 unused week schedules in input.
   ************* There are 27 unused day schedules in input.
   ************* Use Output:Diagnostics,DisplayUnusedSchedules; to see them.
   *************
   ************* ===== Recurring Error Summary =====
   ************* The following recurring error messages occurred.
   *************
   *************  ** Warning ** "CLOTHES WASHER_UNIT1" - Target water temperature should be less than or equal to the hot water temperature error continues...
   *************  **   ~~~   **   This error occurred 54143 total times;
   *************  **   ~~~   **   during Warmup 0 times;
   *************  **   ~~~   **   during Sizing 0 times.
   *************  **   ~~~   **   Max=1.993156  Min=1.806196
   *************
   *************  ** Warning ** "DISHWASHER_UNIT1" - Target water temperature should be less than or equal to the hot water temperature error continues...
   *************  **   ~~~   **   This error occurred 54143 total times;
   *************  **   ~~~   **   during Warmup 0 times;
   *************  **   ~~~   **   during Sizing 0 times.
   *************  **   ~~~   **   Max=1.993156  Min=1.806196
   *************
   *************
   ************* ===== Final Error Summary =====
   ************* The following error categories occurred.  Consider correcting or noting.
   ************* Nominally Unused Constructions
   ************* ..The nominally unused constructions warning is provided to alert you to potential conditions that can cause
   ************* ..extra time during simulation. Each construction is calculated by the algorithm indicated in the HeatBalanceAlgorithm
   ************* ..object. You may remove the constructions indicated (when you use the DisplayExtraWarnings option).
   *************
   ************* EnergyPlus Warmup Error Summary. During Warmup: 0 Warning; 0 Severe Errors.
   ************* EnergyPlus Sizing Error Summary. During Sizing: 3 Warning; 0 Severe Errors.
   ************* EnergyPlus Completed Successfully-- 108312 Warning; 0 Severe Errors; Elapsed Time=00hr 00min 42.08sec
